<additional xmlns:xsi="http://www.w3.org/2001/XMLSchema-instance" xsi:noNamespaceSchemaLocation="http://sumo.dlr.de/xsd/additional_file.xsd">
    <laneAreaDetector file="e2output.xml" freq="60" friendlyPos="x" id="e2det_np10_nt25_0" lane="np10_nt25_0" length="67.7" pos="0"/>
    <laneAreaDetector file="e2output.xml" freq="60" friendlyPos="x" id="e2det_np10_nt25_1" lane="np10_nt25_1" length="67.7" pos="0"/>
    <laneAreaDetector file="e2output.xml" freq="60" friendlyPos="x" id="e2det_np11_nt25_0" lane="np11_nt25_0" length="64.5" pos="0"/>
    <laneAreaDetector file="e2output.xml" freq="60" friendlyPos="x" id="e2det_nt20_nt25_0" lane="nt20_nt25_0" length="179.1" pos="0"/>
    <laneAreaDetector file="e2output.xml" freq="60" friendlyPos="x" id="e2det_nt24_nt25_0" lane="nt24_nt25_0" length="185.5" pos="0"/>
    <laneAreaDetector file="e2output.xml" freq="60" friendlyPos="x" id="e2det_nt24_nt25_1" lane="nt24_nt25_1" length="185.5" pos="0"/>
    <laneAreaDetector file="e2output.xml" freq="60" friendlyPos="x" id="e2det_np12_nt24_0" lane="np12_nt24_0" length="64.5" pos="0"/>
    <laneAreaDetector file="e2output.xml" freq="60" friendlyPos="x" id="e2det_nt19_nt24_0" lane="nt19_nt24_0" length="179.1" pos="0"/>
    <laneAreaDetector file="e2output.xml" freq="60" friendlyPos="x" id="e2det_nt23_nt24_0" lane="nt23_nt24_0" length="185.5" pos="0"/>
    <laneAreaDetector file="e2output.xml" freq="60" friendlyPos="x" id="e2det_nt23_nt24_1" lane="nt23_nt24_1" length="185.5" pos="0"/>
    <laneAreaDetector file="e2output.xml" freq="60" friendlyPos="x" id="e2det_nt25_nt24_0" lane="nt25_nt24_0" length="185.5" pos="0"/>
    <laneAreaDetector file="e2output.xml" freq="60" friendlyPos="x" id="e2det_nt25_nt24_1" lane="nt25_nt24_1" length="185.5" pos="0"/>
    <laneAreaDetector file="e2output.xml" freq="60" friendlyPos="x" id="e2det_np13_nt23_0" lane="np13_nt23_0" length="64.5" pos="0"/>
    <laneAreaDetector file="e2output.xml" freq="60" friendlyPos="x" id="e2det_nt18_nt23_0" lane="nt18_nt23_0" length="179.1" pos="0"/>
    <laneAreaDetector file="e2output.xml" freq="60" friendlyPos="x" id="e2det_nt22_nt23_0" lane="nt22_nt23_0" length="185.5" pos="0"/>
    <laneAreaDetector file="e2output.xml" freq="60" friendlyPos="x" id="e2det_nt22_nt23_1" lane="nt22_nt23_1" length="185.5" pos="0"/>
    <laneAreaDetector file="e2output.xml" freq="60" friendlyPos="x" id="e2det_nt24_nt23_0" lane="nt24_nt23_0" length="185.5" pos="0"/>
    <laneAreaDetector file="e2output.xml" freq="60" friendlyPos="x" id="e2det_nt24_nt23_1" lane="nt24_nt23_1" length="185.5" pos="0"/>
    <laneAreaDetector file="e2output.xml" freq="60" friendlyPos="x" id="e2det_np14_nt22_0" lane="np14_nt22_0" length="64.5" pos="0"/>
    <laneAreaDetector file="e2output.xml" freq="60" friendlyPos="x" id="e2det_nt17_nt22_0" lane="nt17_nt22_0" length="179.1" pos="0"/>
    <laneAreaDetector file="e2output.xml" freq="60" friendlyPos="x" id="e2det_nt21_nt22_0" lane="nt21_nt22_0" length="185.5" pos="0"/>
    <laneAreaDetector file="e2output.xml" freq="60" friendlyPos="x" id="e2det_nt21_nt22_1" lane="nt21_nt22_1" length="185.5" pos="0"/>
    <laneAreaDetector file="e2output.xml" freq="60" friendlyPos="x" id="e2det_nt23_nt22_0" lane="nt23_nt22_0" length="185.5" pos="0"/>
    <laneAreaDetector file="e2output.xml" freq="60" friendlyPos="x" id="e2det_nt23_nt22_1" lane="nt23_nt22_1" length="185.5" pos="0"/>
    <laneAreaDetector file="e2output.xml" freq="60" friendlyPos="x" id="e2det_np15_nt21_0" lane="np15_nt21_0" length="64.5" pos="0"/>
    <laneAreaDetector file="e2output.xml" freq="60" friendlyPos="x" id="e2det_np16_nt21_0" lane="np16_nt21_0" length="67.7" pos="0"/>
    <laneAreaDetector file="e2output.xml" freq="60" friendlyPos="x" id="e2det_np16_nt21_1" lane="np16_nt21_1" length="67.7" pos="0"/>
    <laneAreaDetector file="e2output.xml" freq="60" friendlyPos="x" id="e2det_nt16_nt21_0" lane="nt16_nt21_0" length="179.1" pos="0"/>
    <laneAreaDetector file="e2output.xml" freq="60" friendlyPos="x" id="e2det_nt22_nt21_0" lane="nt22_nt21_0" length="185.5" pos="0"/>
    <laneAreaDetector file="e2output.xml" freq="60" friendlyPos="x" id="e2det_nt22_nt21_1" lane="nt22_nt21_1" length="185.5" pos="0"/>
    <laneAreaDetector file="e2output.xml" freq="60" friendlyPos="x" id="e2det_np17_nt16_0" lane="np17_nt16_0" length="67.7" pos="0"/>
    <laneAreaDetector file="e2output.xml" freq="60" friendlyPos="x" id="e2det_np17_nt16_1" lane="np17_nt16_1" length="67.7" pos="0"/>
    <laneAreaDetector file="e2output.xml" freq="60" friendlyPos="x" id="e2det_nt11_nt16_0" lane="nt11_nt16_0" length="179.1" pos="0"/>
    <laneAreaDetector file="e2output.xml" freq="60" friendlyPos="x" id="e2det_nt17_nt16_0" lane="nt17_nt16_0" length="185.5" pos="0"/>
    <laneAreaDetector file="e2output.xml" freq="60" friendlyPos="x" id="e2det_nt17_nt16_1" lane="nt17_nt16_1" length="185.5" pos="0"/>
    <laneAreaDetector file="e2output.xml" freq="60" friendlyPos="x" id="e2det_nt21_nt16_0" lane="nt21_nt16_0" length="179.1" pos="0"/>
    <laneAreaDetector file="e2output.xml" freq="60" friendlyPos="x" id="e2det_np18_nt11_0" lane="np18_nt11_0" length="67.7" pos="0"/>
    <laneAreaDetector file="e2output.xml" freq="60" friendlyPos="x" id="e2det_np18_nt11_1" lane="np18_nt11_1" length="67.7" pos="0"/>
    <laneAreaDetector file="e2output.xml" freq="60" friendlyPos="x" id="e2det_nt12_nt11_0" lane="nt12_nt11_0" length="185.5" pos="0"/>
    <laneAreaDetector file="e2output.xml" freq="60" friendlyPos="x" id="e2det_nt12_nt11_1" lane="nt12_nt11_1" length="185.5" pos="0"/>
    <laneAreaDetector file="e2output.xml" freq="60" friendlyPos="x" id="e2det_nt16_nt11_0" lane="nt16_nt11_0" length="179.1" pos="0"/>
    <laneAreaDetector file="e2output.xml" freq="60" friendlyPos="x" id="e2det_nt6_nt11_0" lane="nt6_nt11_0" length="179.1" pos="0"/>
    <laneAreaDetector file="e2output.xml" freq="60" friendlyPos="x" id="e2det_np19_nt6_0" lane="np19_nt6_0" length="67.7" pos="0"/>
    <laneAreaDetector file="e2output.xml" freq="60" friendlyPos="x" id="e2det_np19_nt6_1" lane="np19_nt6_1" length="67.7" pos="0"/>
    <laneAreaDetector file="e2output.xml" freq="60" friendlyPos="x" id="e2det_nt11_nt6_0" lane="nt11_nt6_0" length="179.1" pos="0"/>
    <laneAreaDetector file="e2output.xml" freq="60" friendlyPos="x" id="e2det_nt1_nt6_0" lane="nt1_nt6_0" length="179.1" pos="0"/>
    <laneAreaDetector file="e2output.xml" freq="60" friendlyPos="x" id="e2det_nt7_nt6_0" lane="nt7_nt6_0" length="185.5" pos="0"/>
    <laneAreaDetector file="e2output.xml" freq="60" friendlyPos="x" id="e2det_nt7_nt6_1" lane="nt7_nt6_1" length="185.5" pos="0"/>
    <laneAreaDetector file="e2output.xml" freq="60" friendlyPos="x" id="e2det_np1_nt1_0" lane="np1_nt1_0" length="64.5" pos="0"/>
    <laneAreaDetector file="e2output.xml" freq="60" friendlyPos="x" id="e2det_np20_nt1_0" lane="np20_nt1_0" length="67.7" pos="0"/>
    <laneAreaDetector file="e2output.xml" freq="60" friendlyPos="x" id="e2det_np20_nt1_1" lane="np20_nt1_1" length="67.7" pos="0"/>
    <laneAreaDetector file="e2output.xml" freq="60" friendlyPos="x" id="e2det_nt2_nt1_0" lane="nt2_nt1_0" length="185.5" pos="0"/>
    <laneAreaDetector file="e2output.xml" freq="60" friendlyPos="x" id="e2det_nt2_nt1_1" lane="nt2_nt1_1" length="185.5" pos="0"/>
    <laneAreaDetector file="e2output.xml" freq="60" friendlyPos="x" id="e2det_nt6_nt1_0" lane="nt6_nt1_0" length="179.1" pos="0"/>
    <laneAreaDetector file="e2output.xml" freq="60" friendlyPos="x" id="e2det_np2_nt2_0" lane="np2_nt2_0" length="64.5" pos="0"/>
    <laneAreaDetector file="e2output.xml" freq="60" friendlyPos="x" id="e2det_nt1_nt2_0" lane="nt1_nt2_0" length="185.5" pos="0"/>
    <laneAreaDetector file="e2output.xml" freq="60" friendlyPos="x" id="e2det_nt1_nt2_1" lane="nt1_nt2_1" length="185.5" pos="0"/>
    <laneAreaDetector file="e2output.xml" freq="60" friendlyPos="x" id="e2det_nt3_nt2_0" lane="nt3_nt2_0" length="185.5" pos="0"/>
    <laneAreaDetector file="e2output.xml" freq="60" friendlyPos="x" id="e2det_nt3_nt2_1" lane="nt3_nt2_1" length="185.5" pos="0"/>
    <laneAreaDetector file="e2output.xml" freq="60" friendlyPos="x" id="e2det_nt7_nt2_0" lane="nt7_nt2_0" length="179.1" pos="0"/>
    <laneAreaDetector file="e2output.xml" freq="60" friendlyPos="x" id="e2det_np3_nt3_0" lane="np3_nt3_0" length="64.5" pos="0"/>
    <laneAreaDetector file="e2output.xml" freq="60" friendlyPos="x" id="e2det_nt2_nt3_0" lane="nt2_nt3_0" length="185.5" pos="0"/>
    <laneAreaDetector file="e2output.xml" freq="60" friendlyPos="x" id="e2det_nt2_nt3_1" lane="nt2_nt3_1" length="185.5" pos="0"/>
    <laneAreaDetector file="e2output.xml" freq="60" friendlyPos="x" id="e2det_nt4_nt3_0" lane="nt4_nt3_0" length="185.5" pos="0"/>
    <laneAreaDetector file="e2output.xml" freq="60" friendlyPos="x" id="e2det_nt4_nt3_1" lane="nt4_nt3_1" length="185.5" pos="0"/>
    <laneAreaDetector file="e2output.xml" freq="60" friendlyPos="x" id="e2det_nt8_nt3_0" lane="nt8_nt3_0" length="179.1" pos="0"/>
    <laneAreaDetector file="e2output.xml" freq="60" friendlyPos="x" id="e2det_np4_nt4_0" lane="np4_nt4_0" length="64.5" pos="0"/>
    <laneAreaDetector file="e2output.xml" freq="60" friendlyPos="x" id="e2det_nt3_nt4_0" lane="nt3_nt4_0" length="185.5" pos="0"/>
    <laneAreaDetector file="e2output.xml" freq="60" friendlyPos="x" id="e2det_nt3_nt4_1" lane="nt3_nt4_1" length="185.5" pos="0"/>
    <laneAreaDetector file="e2output.xml" freq="60" friendlyPos="x" id="e2det_nt5_nt4_0" lane="nt5_nt4_0" length="185.5" pos="0"/>
    <laneAreaDetector file="e2output.xml" freq="60" friendlyPos="x" id="e2det_nt5_nt4_1" lane="nt5_nt4_1" length="185.5" pos="0"/>
    <laneAreaDetector file="e2output.xml" freq="60" friendlyPos="x" id="e2det_nt9_nt4_0" lane="nt9_nt4_0" length="179.1" pos="0"/>
    <laneAreaDetector file="e2output.xml" freq="60" friendlyPos="x" id="e2det_np5_nt5_0" lane="np5_nt5_0" length="64.5" pos="0"/>
    <laneAreaDetector file="e2output.xml" freq="60" friendlyPos="x" id="e2det_np6_nt5_0" lane="np6_nt5_0" length="67.7" pos="0"/>
    <laneAreaDetector file="e2output.xml" freq="60" friendlyPos="x" id="e2det_np6_nt5_1" lane="np6_nt5_1" length="67.7" pos="0"/>
    <laneAreaDetector file="e2output.xml" freq="60" friendlyPos="x" id="e2det_nt10_nt5_0" lane="nt10_nt5_0" length="179.1" pos="0"/>
    <laneAreaDetector file="e2output.xml" freq="60" friendlyPos="x" id="e2det_nt4_nt5_0" lane="nt4_nt5_0" length="185.5" pos="0"/>
    <laneAreaDetector file="e2output.xml" freq="60" friendlyPos="x" id="e2det_nt4_nt5_1" lane="nt4_nt5_1" length="185.5" pos="0"/>
    <laneAreaDetector file="e2output.xml" freq="60" friendlyPos="x" id="e2det_np7_nt10_0" lane="np7_nt10_0" length="67.7" pos="0"/>
    <laneAreaDetector file="e2output.xml" freq="60" friendlyPos="x" id="e2det_np7_nt10_1" lane="np7_nt10_1" length="67.7" pos="0"/>
    <laneAreaDetector file="e2output.xml" freq="60" friendlyPos="x" id="e2det_nt15_nt10_0" lane="nt15_nt10_0" length="179.1" pos="0"/>
    <laneAreaDetector file="e2output.xml" freq="60" friendlyPos="x" id="e2det_nt5_nt10_0" lane="nt5_nt10_0" length="179.1" pos="0"/>
    <laneAreaDetector file="e2output.xml" freq="60" friendlyPos="x" id="e2det_nt9_nt10_0" lane="nt9_nt10_0" length="185.5" pos="0"/>
    <laneAreaDetector file="e2output.xml" freq="60" friendlyPos="x" id="e2det_nt9_nt10_1" lane="nt9_nt10_1" length="185.5" pos="0"/>
    <laneAreaDetector file="e2output.xml" freq="60" friendlyPos="x" id="e2det_np8_nt15_0" lane="np8_nt15_0" length="67.7" pos="0"/>
    <laneAreaDetector file="e2output.xml" freq="60" friendlyPos="x" id="e2det_np8_nt15_1" lane="np8_nt15_1" length="67.7" pos="0"/>
    <laneAreaDetector file="e2output.xml" freq="60" friendlyPos="x" id="e2det_nt10_nt15_0" lane="nt10_nt15_0" length="179.1" pos="0"/>
    <laneAreaDetector file="e2output.xml" freq="60" friendlyPos="x" id="e2det_nt14_nt15_0" lane="nt14_nt15_0" length="185.5" pos="0"/>
    <laneAreaDetector file="e2output.xml" freq="60" friendlyPos="x" id="e2det_nt14_nt15_1" lane="nt14_nt15_1" length="185.5" pos="0"/>
    <laneAreaDetector file="e2output.xml" freq="60" friendlyPos="x" id="e2det_nt20_nt15_0" lane="nt20_nt15_0" length="179.1" pos="0"/>
    <laneAreaDetector file="e2output.xml" freq="60" friendlyPos="x" id="e2det_np9_nt20_0" lane="np9_nt20_0" length="67.7" pos="0"/>
    <laneAreaDetector file="e2output.xml" freq="60" friendlyPos="x" id="e2det_np9_nt20_1" lane="np9_nt20_1" length="67.7" pos="0"/>
    <laneAreaDetector file="e2output.xml" freq="60" friendlyPos="x" id="e2det_nt15_nt20_0" lane="nt15_nt20_0" length="179.1" pos="0"/>
    <laneAreaDetector file="e2output.xml" freq="60" friendlyPos="x" id="e2det_nt19_nt20_0" lane="nt19_nt20_0" length="185.5" pos="0"/>
    <laneAreaDetector file="e2output.xml" freq="60" friendlyPos="x" id="e2det_nt19_nt20_1" lane="nt19_nt20_1" length="185.5" pos="0"/>
    <laneAreaDetector file="e2output.xml" freq="60" friendlyPos="x" id="e2det_nt25_nt20_0" lane="nt25_nt20_0" length="179.1" pos="0"/>
    <laneAreaDetector file="e2output.xml" freq="60" friendlyPos="x" id="e2det_nt10_nt9_0" lane="nt10_nt9_0" length="185.5" pos="0"/>
    <laneAreaDetector file="e2output.xml" freq="60" friendlyPos="x" id="e2det_nt10_nt9_1" lane="nt10_nt9_1" length="185.5" pos="0"/>
    <laneAreaDetector file="e2output.xml" freq="60" friendlyPos="x" id="e2det_nt14_nt9_0" lane="nt14_nt9_0" length="179.1" pos="0"/>
    <laneAreaDetector file="e2output.xml" freq="60" friendlyPos="x" id="e2det_nt4_nt9_0" lane="nt4_nt9_0" length="179.1" pos="0"/>
    <laneAreaDetector file="e2output.xml" freq="60" friendlyPos="x" id="e2det_nt8_nt9_0" lane="nt8_nt9_0" length="185.5" pos="0"/>
    <laneAreaDetector file="e2output.xml" freq="60" friendlyPos="x" id="e2det_nt8_nt9_1" lane="nt8_nt9_1" length="185.5" pos="0"/>
    <laneAreaDetector file="e2output.xml" freq="60" friendlyPos="x" id="e2det_nt11_nt12_0" lane="nt11_nt12_0" length="185.5" pos="0"/>
    <laneAreaDetector file="e2output.xml" freq="60" friendlyPos="x" id="e2det_nt11_nt12_1" lane="nt11_nt12_1" length="185.5" pos="0"/>
    <laneAreaDetector file="e2output.xml" freq="60" friendlyPos="x" id="e2det_nt13_nt12_0" lane="nt13_nt12_0" length="185.5" pos="0"/>
    <laneAreaDetector file="e2output.xml" freq="60" friendlyPos="x" id="e2det_nt13_nt12_1" lane="nt13_nt12_1" length="185.5" pos="0"/>
    <laneAreaDetector file="e2output.xml" freq="60" friendlyPos="x" id="e2det_nt17_nt12_0" lane="nt17_nt12_0" length="179.1" pos="0"/>
    <laneAreaDetector file="e2output.xml" freq="60" friendlyPos="x" id="e2det_nt7_nt12_0" lane="nt7_nt12_0" length="179.1" pos="0"/>
    <laneAreaDetector file="e2output.xml" freq="60" friendlyPos="x" id="e2det_nt12_nt13_0" lane="nt12_nt13_0" length="185.5" pos="0"/>
    <laneAreaDetector file="e2output.xml" freq="60" friendlyPos="x" id="e2det_nt12_nt13_1" lane="nt12_nt13_1" length="185.5" pos="0"/>
    <laneAreaDetector file="e2output.xml" freq="60" friendlyPos="x" id="e2det_nt14_nt13_0" lane="nt14_nt13_0" length="185.5" pos="0"/>
    <laneAreaDetector file="e2output.xml" freq="60" friendlyPos="x" id="e2det_nt14_nt13_1" lane="nt14_nt13_1" length="185.5" pos="0"/>
    <laneAreaDetector file="e2output.xml" freq="60" friendlyPos="x" id="e2det_nt18_nt13_0" lane="nt18_nt13_0" length="179.1" pos="0"/>
    <laneAreaDetector file="e2output.xml" freq="60" friendlyPos="x" id="e2det_nt8_nt13_0" lane="nt8_nt13_0" length="179.1" pos="0"/>
    <laneAreaDetector file="e2output.xml" freq="60" friendlyPos="x" id="e2det_nt12_nt17_0" lane="nt12_nt17_0" length="179.1" pos="0"/>
    <laneAreaDetector file="e2output.xml" freq="60" friendlyPos="x" id="e2det_nt16_nt17_0" lane="nt16_nt17_0" length="185.5" pos="0"/>
    <laneAreaDetector file="e2output.xml" freq="60" friendlyPos="x" id="e2det_nt16_nt17_1" lane="nt16_nt17_1" length="185.5" pos="0"/>
    <laneAreaDetector file="e2output.xml" freq="60" friendlyPos="x" id="e2det_nt18_nt17_0" lane="nt18_nt17_0" length="185.5" pos="0"/>
    <laneAreaDetector file="e2output.xml" freq="60" friendlyPos="x" id="e2det_nt18_nt17_1" lane="nt18_nt17_1" length="185.5" pos="0"/>
    <laneAreaDetector file="e2output.xml" freq="60" friendlyPos="x" id="e2det_nt22_nt17_0" lane="nt22_nt17_0" length="179.1" pos="0"/>
    <laneAreaDetector file="e2output.xml" freq="60" friendlyPos="x" id="e2det_nt12_nt7_0" lane="nt12_nt7_0" length="179.1" pos="0"/>
    <laneAreaDetector file="e2output.xml" freq="60" friendlyPos="x" id="e2det_nt2_nt7_0" lane="nt2_nt7_0" length="179.1" pos="0"/>
    <laneAreaDetector file="e2output.xml" freq="60" friendlyPos="x" id="e2det_nt6_nt7_0" lane="nt6_nt7_0" length="185.5" pos="0"/>
    <laneAreaDetector file="e2output.xml" freq="60" friendlyPos="x" id="e2det_nt6_nt7_1" lane="nt6_nt7_1" length="185.5" pos="0"/>
    <laneAreaDetector file="e2output.xml" freq="60" friendlyPos="x" id="e2det_nt8_nt7_0" lane="nt8_nt7_0" length="185.5" pos="0"/>
    <laneAreaDetector file="e2output.xml" freq="60" friendlyPos="x" id="e2det_nt8_nt7_1" lane="nt8_nt7_1" length="185.5" pos="0"/>
    <laneAreaDetector file="e2output.xml" freq="60" friendlyPos="x" id="e2det_nt13_nt14_0" lane="nt13_nt14_0" length="185.5" pos="0"/>
    <laneAreaDetector file="e2output.xml" freq="60" friendlyPos="x" id="e2det_nt13_nt14_1" lane="nt13_nt14_1" length="185.5" pos="0"/>
    <laneAreaDetector file="e2output.xml" freq="60" friendlyPos="x" id="e2det_nt15_nt14_0" lane="nt15_nt14_0" length="185.5" pos="0"/>
    <laneAreaDetector file="e2output.xml" freq="60" friendlyPos="x" id="e2det_nt15_nt14_1" lane="nt15_nt14_1" length="185.5" pos="0"/>
    <laneAreaDetector file="e2output.xml" freq="60" friendlyPos="x" id="e2det_nt19_nt14_0" lane="nt19_nt14_0" length="179.1" pos="0"/>
    <laneAreaDetector file="e2output.xml" freq="60" friendlyPos="x" id="e2det_nt9_nt14_0" lane="nt9_nt14_0" length="179.1" pos="0"/>
    <laneAreaDetector file="e2output.xml" freq="60" friendlyPos="x" id="e2det_nt13_nt18_0" lane="nt13_nt18_0" length="179.1" pos="0"/>
    <laneAreaDetector file="e2output.xml" freq="60" friendlyPos="x" id="e2det_nt17_nt18_0" lane="nt17_nt18_0" length="185.5" pos="0"/>
    <laneAreaDetector file="e2output.xml" freq="60" friendlyPos="x" id="e2det_nt17_nt18_1" lane="nt17_nt18_1" length="185.5" pos="0"/>
    <laneAreaDetector file="e2output.xml" freq="60" friendlyPos="x" id="e2det_nt19_nt18_0" lane="nt19_nt18_0" length="185.5" pos="0"/>
    <laneAreaDetector file="e2output.xml" freq="60" friendlyPos="x" id="e2det_nt19_nt18_1" lane="nt19_nt18_1" length="185.5" pos="0"/>
    <laneAreaDetector file="e2output.xml" freq="60" friendlyPos="x" id="e2det_nt23_nt18_0" lane="nt23_nt18_0" length="179.1" pos="0"/>
    <laneAreaDetector file="e2output.xml" freq="60" friendlyPos="x" id="e2det_nt13_nt8_0" lane="nt13_nt8_0" length="179.1" pos="0"/>
    <laneAreaDetector file="e2output.xml" freq="60" friendlyPos="x" id="e2det_nt3_nt8_0" lane="nt3_nt8_0" length="179.1" pos="0"/>
    <laneAreaDetector file="e2output.xml" freq="60" friendlyPos="x" id="e2det_nt7_nt8_0" lane="nt7_nt8_0" length="185.5" pos="0"/>
    <laneAreaDetector file="e2output.xml" freq="60" friendlyPos="x" id="e2det_nt7_nt8_1" lane="nt7_nt8_1" length="185.5" pos="0"/>
    <laneAreaDetector file="e2output.xml" freq="60" friendlyPos="x" id="e2det_nt9_nt8_0" lane="nt9_nt8_0" length="185.5" pos="0"/>
    <laneAreaDetector file="e2output.xml" freq="60" friendlyPos="x" id="e2det_nt9_nt8_1" lane="nt9_nt8_1" length="185.5" pos="0"/>
    <laneAreaDetector file="e2output.xml" freq="60" friendlyPos="x" id="e2det_nt14_nt19_0" lane="nt14_nt19_0" length="179.1" pos="0"/>
    <laneAreaDetector file="e2output.xml" freq="60" friendlyPos="x" id="e2det_nt18_nt19_0" lane="nt18_nt19_0" length="185.5" pos="0"/>
    <laneAreaDetector file="e2output.xml" freq="60" friendlyPos="x" id="e2det_nt18_nt19_1" lane="nt18_nt19_1" length="185.5" pos="0"/>
    <laneAreaDetector file="e2output.xml" freq="60" friendlyPos="x" id="e2det_nt20_nt19_0" lane="nt20_nt19_0" length="185.5" pos="0"/>
    <laneAreaDetector file="e2output.xml" freq="60" friendlyPos="x" id="e2det_nt20_nt19_1" lane="nt20_nt19_1" length="185.5" pos="0"/>
    <laneAreaDetector file="e2output.xml" freq="60" friendlyPos="x" id="e2det_nt24_nt19_0" lane="nt24_nt19_0" length="179.1" pos="0"/>
</additional>
