<?xml version="1.0" encoding="UTF-8"?>

<!-- generated on 2022-12-05 11:32:03 by Eclipse SUMO netedit Version 1.14.1
<configuration xmlns:xsi="http://www.w3.org/2001/XMLSchema-instance" xsi:noNamespaceSchemaLocation="http://sumo.dlr.de/xsd/netconvertConfiguration.xsd">

    <input>
        <sumo-net-file value="/home/alantony/Main/CollegeWork/Major%20Project/smart-traffic-management/single_intersection_tls.net.xml"/>
    </input>

    <output>
        <output-file value="/home/alantony/Main/CollegeWork/Major%20Project/smart-traffic-management/single_intersection_tls.net.xml"/>
    </output>

    <processing>
        <geometry.min-radius.fix.railways value="false"/>
        <geometry.max-grade.fix value="false"/>
        <offset.disable-normalization value="true"/>
        <lefthand value="true"/>
    </processing>

    <junctions>
        <no-turnarounds value="true"/>
        <junctions.corner-detail value="5"/>
        <junctions.limit-turn-speed value="5.5"/>
        <rectangular-lane-cut value="false"/>
    </junctions>

    <pedestrian>
        <walkingareas value="false"/>
    </pedestrian>

</configuration>
-->

<net version="1.9" junctionCornerDetail="5" lefthand="true" limitTurnSpeed="5.50" xmlns:xsi="http://www.w3.org/2001/XMLSchema-instance" xsi:noNamespaceSchemaLocation="http://sumo.dlr.de/xsd/net_file.xsd">

    <location netOffset="0.00,0.00" convBoundary="0.00,0.00,300.00,300.00" origBoundary="0.00,0.00,300.00,300.00" projParameter="!"/>

    <edge id=":A0_0" function="internal">
        <lane id=":A0_0_0" index="0" speed="6.08" length="7.74" shape="3.20,-1.60 1.10,-1.30 -0.40,-0.40 -1.30,1.10 -1.60,3.20"/>
    </edge>
    <edge id=":A0_1" function="internal">
        <lane id=":A0_1_0" index="0" speed="3.90" length="2.58" shape="1.60,3.20 1.70,2.50 2.00,2.00 2.50,1.70 3.20,1.60"/>
    </edge>
    <edge id=":A1_0" function="internal">
        <lane id=":A1_0_0" index="0" speed="13.89" length="14.40" shape="-1.60,142.80 -1.60,157.20"/>
    </edge>
    <edge id=":A1_1" function="internal">
        <lane id=":A1_1_0" index="0" speed="8.00" length="4.07" shape="-1.60,142.80 -1.05,146.65 -0.96,146.80"/>
    </edge>
    <edge id=":A1_2" function="internal">
        <lane id=":A1_2_0" index="0" speed="3.65" length="1.44" shape="-1.60,142.80 -0.80,144.00"/>
    </edge>
    <edge id=":A1_9" function="internal">
        <lane id=":A1_9_0" index="0" speed="8.00" length="10.13" shape="-0.96,146.80 0.60,149.40 3.35,151.05 7.20,151.60"/>
    </edge>
    <edge id=":A1_10" function="internal">
        <lane id=":A1_10_0" index="0" speed="3.65" length="3.23" shape="-0.80,144.00 0.00,144.40 0.80,144.00 1.60,142.80"/>
    </edge>
    <edge id=":A1_3" function="internal">
        <lane id=":A1_3_0" index="0" speed="6.51" length="9.03" shape="7.20,148.40 4.75,148.05 3.00,147.00 1.95,145.25 1.60,142.80"/>
    </edge>
    <edge id=":A1_4" function="internal">
        <lane id=":A1_4_0" index="0" speed="8.00" length="14.19" shape="7.20,148.40 3.35,148.95 0.60,150.60 -1.05,153.35 -1.60,157.20"/>
    </edge>
    <edge id=":A1_5" function="internal">
        <lane id=":A1_5_0" index="0" speed="3.65" length="4.67" shape="7.20,148.40 6.00,149.20 5.60,150.00 6.00,150.80 7.20,151.60"/>
    </edge>
    <edge id=":A1_6" function="internal">
        <lane id=":A1_6_0" index="0" speed="6.51" length="9.03" shape="1.60,157.20 1.95,154.75 3.00,153.00 4.75,151.95 7.20,151.60"/>
    </edge>
    <edge id=":A1_7" function="internal">
        <lane id=":A1_7_0" index="0" speed="13.89" length="14.40" shape="1.60,157.20 1.60,142.80"/>
    </edge>
    <edge id=":A1_8" function="internal">
        <lane id=":A1_8_0" index="0" speed="3.65" length="1.44" shape="1.60,157.20 0.80,156.00"/>
    </edge>
    <edge id=":A1_11" function="internal">
        <lane id=":A1_11_0" index="0" speed="3.65" length="3.23" shape="0.80,156.00 0.00,155.60 -0.80,156.00 -1.60,157.20"/>
    </edge>
    <edge id=":A2_0" function="internal">
        <lane id=":A2_0_0" index="0" speed="6.08" length="7.74" shape="-1.60,296.80 -1.30,298.90 -0.40,300.40 1.10,301.30 3.20,301.60"/>
    </edge>
    <edge id=":A2_1" function="internal">
        <lane id=":A2_1_0" index="0" speed="3.90" length="2.58" shape="3.20,298.40 2.50,298.30 2.00,298.00 1.70,297.50 1.60,296.80"/>
    </edge>
    <edge id=":B0_0" function="internal">
        <lane id=":B0_0_0" index="0" speed="13.89" length="14.40" shape="157.20,-1.60 142.80,-1.60"/>
    </edge>
    <edge id=":B0_1" function="internal">
        <lane id=":B0_1_0" index="0" speed="8.00" length="4.07" shape="157.20,-1.60 153.35,-1.05 153.20,-0.96"/>
    </edge>
    <edge id=":B0_2" function="internal">
        <lane id=":B0_2_0" index="0" speed="3.65" length="1.44" shape="157.20,-1.60 156.00,-0.80"/>
    </edge>
    <edge id=":B0_9" function="internal">
        <lane id=":B0_9_0" index="0" speed="8.00" length="10.13" shape="153.20,-0.96 150.60,0.60 148.95,3.35 148.40,7.20"/>
    </edge>
    <edge id=":B0_10" function="internal">
        <lane id=":B0_10_0" index="0" speed="3.65" length="3.23" shape="156.00,-0.80 155.60,-0.00 156.00,0.80 157.20,1.60"/>
    </edge>
    <edge id=":B0_3" function="internal">
        <lane id=":B0_3_0" index="0" speed="6.51" length="9.03" shape="151.60,7.20 151.95,4.75 153.00,3.00 154.75,1.95 157.20,1.60"/>
    </edge>
    <edge id=":B0_4" function="internal">
        <lane id=":B0_4_0" index="0" speed="8.00" length="14.19" shape="151.60,7.20 151.05,3.35 149.40,0.60 146.65,-1.05 142.80,-1.60"/>
    </edge>
    <edge id=":B0_5" function="internal">
        <lane id=":B0_5_0" index="0" speed="3.65" length="4.67" shape="151.60,7.20 150.80,6.00 150.00,5.60 149.20,6.00 148.40,7.20"/>
    </edge>
    <edge id=":B0_6" function="internal">
        <lane id=":B0_6_0" index="0" speed="6.51" length="9.03" shape="142.80,1.60 145.25,1.95 147.00,3.00 148.05,4.75 148.40,7.20"/>
    </edge>
    <edge id=":B0_7" function="internal">
        <lane id=":B0_7_0" index="0" speed="13.89" length="14.40" shape="142.80,1.60 157.20,1.60"/>
    </edge>
    <edge id=":B0_8" function="internal">
        <lane id=":B0_8_0" index="0" speed="3.65" length="1.44" shape="142.80,1.60 144.00,0.80"/>
    </edge>
    <edge id=":B0_11" function="internal">
        <lane id=":B0_11_0" index="0" speed="3.65" length="3.23" shape="144.00,0.80 144.40,-0.00 144.00,-0.80 142.80,-1.60"/>
    </edge>
    <edge id=":B1_0" function="internal">
        <lane id=":B1_0_0" index="0" speed="6.51" length="9.03" shape="148.40,142.80 148.05,145.25 147.00,147.00 145.25,148.05 142.80,148.40"/>
    </edge>
    <edge id=":B1_1" function="internal">
        <lane id=":B1_1_0" index="0" speed="13.89" length="14.40" shape="148.40,142.80 148.40,157.20"/>
    </edge>
    <edge id=":B1_2" function="internal">
        <lane id=":B1_2_0" index="0" speed="8.00" length="4.07" shape="148.40,142.80 148.95,146.65 149.04,146.80"/>
    </edge>
    <edge id=":B1_3" function="internal">
        <lane id=":B1_3_0" index="0" speed="3.65" length="1.44" shape="148.40,142.80 149.20,144.00"/>
    </edge>
    <edge id=":B1_16" function="internal">
        <lane id=":B1_16_0" index="0" speed="8.00" length="10.13" shape="149.04,146.80 150.60,149.40 153.35,151.05 157.20,151.60"/>
    </edge>
    <edge id=":B1_17" function="internal">
        <lane id=":B1_17_0" index="0" speed="3.65" length="3.23" shape="149.20,144.00 150.00,144.40 150.80,144.00 151.60,142.80"/>
    </edge>
    <edge id=":B1_4" function="internal">
        <lane id=":B1_4_0" index="0" speed="6.51" length="9.03" shape="157.20,148.40 154.75,148.05 153.00,147.00 151.95,145.25 151.60,142.80"/>
    </edge>
    <edge id=":B1_5" function="internal">
        <lane id=":B1_5_0" index="0" speed="13.89" length="14.40" shape="157.20,148.40 142.80,148.40"/>
    </edge>
    <edge id=":B1_6" function="internal">
        <lane id=":B1_6_0" index="0" speed="8.00" length="4.07" shape="157.20,148.40 153.35,148.95 153.20,149.04"/>
    </edge>
    <edge id=":B1_7" function="internal">
        <lane id=":B1_7_0" index="0" speed="3.65" length="1.44" shape="157.20,148.40 156.00,149.20"/>
    </edge>
    <edge id=":B1_18" function="internal">
        <lane id=":B1_18_0" index="0" speed="8.00" length="10.13" shape="153.20,149.04 150.60,150.60 148.95,153.35 148.40,157.20"/>
    </edge>
    <edge id=":B1_19" function="internal">
        <lane id=":B1_19_0" index="0" speed="3.65" length="3.23" shape="156.00,149.20 155.60,150.00 156.00,150.80 157.20,151.60"/>
    </edge>
    <edge id=":B1_8" function="internal">
        <lane id=":B1_8_0" index="0" speed="6.51" length="9.03" shape="151.60,157.20 151.95,154.75 153.00,153.00 154.75,151.95 157.20,151.60"/>
    </edge>
    <edge id=":B1_9" function="internal">
        <lane id=":B1_9_0" index="0" speed="13.89" length="14.40" shape="151.60,157.20 151.60,142.80"/>
    </edge>
    <edge id=":B1_10" function="internal">
        <lane id=":B1_10_0" index="0" speed="8.00" length="4.07" shape="151.60,157.20 151.05,153.35 150.96,153.20"/>
    </edge>
    <edge id=":B1_11" function="internal">
        <lane id=":B1_11_0" index="0" speed="3.65" length="1.44" shape="151.60,157.20 150.80,156.00"/>
    </edge>
    <edge id=":B1_20" function="internal">
        <lane id=":B1_20_0" index="0" speed="8.00" length="10.13" shape="150.96,153.20 149.40,150.60 146.65,148.95 142.80,148.40"/>
    </edge>
    <edge id=":B1_21" function="internal">
        <lane id=":B1_21_0" index="0" speed="3.65" length="3.23" shape="150.80,156.00 150.00,155.60 149.20,156.00 148.40,157.20"/>
    </edge>
    <edge id=":B1_12" function="internal">
        <lane id=":B1_12_0" index="0" speed="6.51" length="9.03" shape="142.80,151.60 145.25,151.95 147.00,153.00 148.05,154.75 148.40,157.20"/>
    </edge>
    <edge id=":B1_13" function="internal">
        <lane id=":B1_13_0" index="0" speed="13.89" length="14.40" shape="142.80,151.60 157.20,151.60"/>
    </edge>
    <edge id=":B1_14" function="internal">
        <lane id=":B1_14_0" index="0" speed="8.00" length="4.07" shape="142.80,151.60 146.65,151.05 146.80,150.96"/>
    </edge>
    <edge id=":B1_15" function="internal">
        <lane id=":B1_15_0" index="0" speed="3.65" length="1.44" shape="142.80,151.60 144.00,150.80"/>
    </edge>
    <edge id=":B1_22" function="internal">
        <lane id=":B1_22_0" index="0" speed="8.00" length="10.13" shape="146.80,150.96 149.40,149.40 151.05,146.65 151.60,142.80"/>
    </edge>
    <edge id=":B1_23" function="internal">
        <lane id=":B1_23_0" index="0" speed="3.65" length="3.23" shape="144.00,150.80 144.40,150.00 144.00,149.20 142.80,148.40"/>
    </edge>
    <edge id=":B2_0" function="internal">
        <lane id=":B2_0_0" index="0" speed="6.51" length="9.03" shape="148.40,292.80 148.05,295.25 147.00,297.00 145.25,298.05 142.80,298.40"/>
    </edge>
    <edge id=":B2_1" function="internal">
        <lane id=":B2_1_0" index="0" speed="8.00" length="14.19" shape="148.40,292.80 148.95,296.65 150.60,299.40 153.35,301.05 157.20,301.60"/>
    </edge>
    <edge id=":B2_2" function="internal">
        <lane id=":B2_2_0" index="0" speed="3.65" length="4.67" shape="148.40,292.80 149.20,294.00 150.00,294.40 150.80,294.00 151.60,292.80"/>
    </edge>
    <edge id=":B2_3" function="internal">
        <lane id=":B2_3_0" index="0" speed="6.51" length="9.03" shape="157.20,298.40 154.75,298.05 153.00,297.00 151.95,295.25 151.60,292.80"/>
    </edge>
    <edge id=":B2_4" function="internal">
        <lane id=":B2_4_0" index="0" speed="13.89" length="14.40" shape="157.20,298.40 142.80,298.40"/>
    </edge>
    <edge id=":B2_5" function="internal">
        <lane id=":B2_5_0" index="0" speed="3.65" length="1.44" shape="157.20,298.40 156.00,299.20"/>
    </edge>
    <edge id=":B2_9" function="internal">
        <lane id=":B2_9_0" index="0" speed="3.65" length="3.23" shape="156.00,299.20 155.60,300.00 156.00,300.80 157.20,301.60"/>
    </edge>
    <edge id=":B2_6" function="internal">
        <lane id=":B2_6_0" index="0" speed="13.89" length="14.40" shape="142.80,301.60 157.20,301.60"/>
    </edge>
    <edge id=":B2_7" function="internal">
        <lane id=":B2_7_0" index="0" speed="8.00" length="4.07" shape="142.80,301.60 146.65,301.05 146.80,300.96"/>
    </edge>
    <edge id=":B2_8" function="internal">
        <lane id=":B2_8_0" index="0" speed="3.65" length="1.44" shape="142.80,301.60 144.00,300.80"/>
    </edge>
    <edge id=":B2_10" function="internal">
        <lane id=":B2_10_0" index="0" speed="8.00" length="10.13" shape="146.80,300.96 149.40,299.40 151.05,296.65 151.60,292.80"/>
    </edge>
    <edge id=":B2_11" function="internal">
        <lane id=":B2_11_0" index="0" speed="3.65" length="3.23" shape="144.00,300.80 144.40,300.00 144.00,299.20 142.80,298.40"/>
    </edge>
    <edge id=":C0_0" function="internal">
        <lane id=":C0_0_0" index="0" speed="6.08" length="7.74" shape="301.60,3.20 301.30,1.10 300.40,-0.40 298.90,-1.30 296.80,-1.60"/>
    </edge>
    <edge id=":C0_1" function="internal">
        <lane id=":C0_1_0" index="0" speed="3.90" length="2.58" shape="296.80,1.60 297.50,1.70 298.00,2.00 298.30,2.50 298.40,3.20"/>
    </edge>
    <edge id=":C1_0" function="internal">
        <lane id=":C1_0_0" index="0" speed="6.51" length="9.03" shape="298.40,142.80 298.05,145.25 297.00,147.00 295.25,148.05 292.80,148.40"/>
    </edge>
    <edge id=":C1_1" function="internal">
        <lane id=":C1_1_0" index="0" speed="13.89" length="14.40" shape="298.40,142.80 298.40,157.20"/>
    </edge>
    <edge id=":C1_2" function="internal">
        <lane id=":C1_2_0" index="0" speed="3.65" length="1.44" shape="298.40,142.80 299.20,144.00"/>
    </edge>
    <edge id=":C1_9" function="internal">
        <lane id=":C1_9_0" index="0" speed="3.65" length="3.23" shape="299.20,144.00 300.00,144.40 300.80,144.00 301.60,142.80"/>
    </edge>
    <edge id=":C1_3" function="internal">
        <lane id=":C1_3_0" index="0" speed="13.89" length="14.40" shape="301.60,157.20 301.60,142.80"/>
    </edge>
    <edge id=":C1_4" function="internal">
        <lane id=":C1_4_0" index="0" speed="8.00" length="4.07" shape="301.60,157.20 301.05,153.35 300.96,153.20"/>
    </edge>
    <edge id=":C1_5" function="internal">
        <lane id=":C1_5_0" index="0" speed="3.65" length="1.44" shape="301.60,157.20 300.80,156.00"/>
    </edge>
    <edge id=":C1_10" function="internal">
        <lane id=":C1_10_0" index="0" speed="8.00" length="10.13" shape="300.96,153.20 299.40,150.60 296.65,148.95 292.80,148.40"/>
    </edge>
    <edge id=":C1_11" function="internal">
        <lane id=":C1_11_0" index="0" speed="3.65" length="3.23" shape="300.80,156.00 300.00,155.60 299.20,156.00 298.40,157.20"/>
    </edge>
    <edge id=":C1_6" function="internal">
        <lane id=":C1_6_0" index="0" speed="6.51" length="9.03" shape="292.80,151.60 295.25,151.95 297.00,153.00 298.05,154.75 298.40,157.20"/>
    </edge>
    <edge id=":C1_7" function="internal">
        <lane id=":C1_7_0" index="0" speed="8.00" length="14.19" shape="292.80,151.60 296.65,151.05 299.40,149.40 301.05,146.65 301.60,142.80"/>
    </edge>
    <edge id=":C1_8" function="internal">
        <lane id=":C1_8_0" index="0" speed="3.65" length="4.67" shape="292.80,151.60 294.00,150.80 294.40,150.00 294.00,149.20 292.80,148.40"/>
    </edge>
    <edge id=":C2_0" function="internal">
        <lane id=":C2_0_0" index="0" speed="3.90" length="2.58" shape="298.40,296.80 298.30,297.50 298.00,298.00 297.50,298.30 296.80,298.40"/>
    </edge>
    <edge id=":C2_1" function="internal">
        <lane id=":C2_1_0" index="0" speed="6.08" length="7.74" shape="296.80,301.60 298.90,301.30 300.40,300.40 301.30,298.90 301.60,296.80"/>
    </edge>

    <edge id="A0A1" from="A0" to="A1" priority="-1">
        <lane id="A0A1_0" index="0" speed="13.89" length="139.60" shape="-1.60,3.20 -1.60,142.80"/>
    </edge>
    <edge id="A0B0" from="A0" to="B0" priority="-1">
        <lane id="A0B0_0" index="0" speed="13.89" length="139.60" shape="3.20,1.60 142.80,1.60"/>
    </edge>
    <edge id="A1A0" from="A1" to="A0" priority="-1">
        <lane id="A1A0_0" index="0" speed="13.89" length="139.60" shape="1.60,142.80 1.60,3.20"/>
    </edge>
    <edge id="A1A2" from="A1" to="A2" priority="-1">
        <lane id="A1A2_0" index="0" speed="13.89" length="139.60" shape="-1.60,157.20 -1.60,296.80"/>
    </edge>
    <edge id="A1B1" from="A1" to="B1" priority="-1">
        <lane id="A1B1_0" index="0" speed="13.89" length="135.60" shape="7.20,151.60 142.80,151.60"/>
    </edge>
    <edge id="A2A1" from="A2" to="A1" priority="-1">
        <lane id="A2A1_0" index="0" speed="13.89" length="139.60" shape="1.60,296.80 1.60,157.20"/>
    </edge>
    <edge id="A2B2" from="A2" to="B2" priority="-1">
        <lane id="A2B2_0" index="0" speed="13.89" length="139.60" shape="3.20,301.60 142.80,301.60"/>
    </edge>
    <edge id="B0A0" from="B0" to="A0" priority="-1">
        <lane id="B0A0_0" index="0" speed="13.89" length="139.60" shape="142.80,-1.60 3.20,-1.60"/>
    </edge>
    <edge id="B0B1" from="B0" to="B1" priority="-1">
        <lane id="B0B1_0" index="0" speed="13.89" length="135.60" shape="148.40,7.20 148.40,142.80"/>
    </edge>
    <edge id="B0C0" from="B0" to="C0" priority="-1">
        <lane id="B0C0_0" index="0" speed="13.89" length="139.60" shape="157.20,1.60 296.80,1.60"/>
    </edge>
    <edge id="B1A1" from="B1" to="A1" priority="-1">
        <lane id="B1A1_0" index="0" speed="13.89" length="135.60" shape="142.80,148.40 7.20,148.40"/>
    </edge>
    <edge id="B1B0" from="B1" to="B0" priority="-1">
        <lane id="B1B0_0" index="0" speed="13.89" length="135.60" shape="151.60,142.80 151.60,7.20"/>
    </edge>
    <edge id="B1B2" from="B1" to="B2" priority="-1">
        <lane id="B1B2_0" index="0" speed="13.89" length="135.60" shape="148.40,157.20 148.40,292.80"/>
    </edge>
    <edge id="B1C1" from="B1" to="C1" priority="-1">
        <lane id="B1C1_0" index="0" speed="13.89" length="135.60" shape="157.20,151.60 292.80,151.60"/>
    </edge>
    <edge id="B2A2" from="B2" to="A2" priority="-1">
        <lane id="B2A2_0" index="0" speed="13.89" length="139.60" shape="142.80,298.40 3.20,298.40"/>
    </edge>
    <edge id="B2B1" from="B2" to="B1" priority="-1">
        <lane id="B2B1_0" index="0" speed="13.89" length="135.60" shape="151.60,292.80 151.60,157.20"/>
    </edge>
    <edge id="B2C2" from="B2" to="C2" priority="-1">
        <lane id="B2C2_0" index="0" speed="13.89" length="139.60" shape="157.20,301.60 296.80,301.60"/>
    </edge>
    <edge id="C0B0" from="C0" to="B0" priority="-1">
        <lane id="C0B0_0" index="0" speed="13.89" length="139.60" shape="296.80,-1.60 157.20,-1.60"/>
    </edge>
    <edge id="C0C1" from="C0" to="C1" priority="-1">
        <lane id="C0C1_0" index="0" speed="13.89" length="139.60" shape="298.40,3.20 298.40,142.80"/>
    </edge>
    <edge id="C1B1" from="C1" to="B1" priority="-1">
        <lane id="C1B1_0" index="0" speed="13.89" length="135.60" shape="292.80,148.40 157.20,148.40"/>
    </edge>
    <edge id="C1C0" from="C1" to="C0" priority="-1">
        <lane id="C1C0_0" index="0" speed="13.89" length="139.60" shape="301.60,142.80 301.60,3.20"/>
    </edge>
    <edge id="C1C2" from="C1" to="C2" priority="-1">
        <lane id="C1C2_0" index="0" speed="13.89" length="139.60" shape="298.40,157.20 298.40,296.80"/>
    </edge>
    <edge id="C2B2" from="C2" to="B2" priority="-1">
        <lane id="C2B2_0" index="0" speed="13.89" length="139.60" shape="296.80,298.40 157.20,298.40"/>
    </edge>
    <edge id="C2C1" from="C2" to="C1" priority="-1">
        <lane id="C2C1_0" index="0" speed="13.89" length="139.60" shape="301.60,296.80 301.60,157.20"/>
    </edge>

    <tlLogic id="B1" type="static" programID="0" offset="0">
        <phase duration="60" state="GGGGrrrrrrrrrrrr" minDur="30" maxDur="120"/>
        <phase duration="3"  state="yyyyrrrrrrrrrrrr"/>
        <phase duration="60" state="rrrrGGGGrrrrrrrr" minDur="30" maxDur="120"/>
        <phase duration="3"  state="rrrryyyyrrrrrrrr"/>
        <phase duration="60" state="rrrrrrrrGGGGrrrr" minDur="30" maxDur="120"/>
        <phase duration="3"  state="rrrrrrrryyyyrrrr"/>
        <phase duration="60" state="rrrrrrrrrrrrGGGG" minDur="30" maxDur="120"/>
        <phase duration="3"  state="rrrrrrrrrrrryyyy"/>
    </tlLogic>

    <junction id="A0" type="priority" x="0.00" y="0.00" incLanes="B0A0_0 A1A0_0" intLanes=":A0_0_0 :A0_1_0" shape="3.20,-3.20 3.20,3.20 -3.20,3.20 -2.49,-0.36 -1.60,-1.60 -0.36,-2.49 1.24,-3.02">
        <request index="0" response="00" foes="00" cont="0"/>
        <request index="1" response="00" foes="00" cont="0"/>
    </junction>
    <junction id="A1" type="priority" x="0.00" y="150.00" incLanes="A0A1_0 B1A1_0 A2A1_0" intLanes=":A1_0_0 :A1_9_0 :A1_10_0 :A1_3_0 :A1_4_0 :A1_5_0 :A1_6_0 :A1_7_0 :A1_11_0" shape="-3.20,142.80 3.20,142.80 3.64,145.02 4.20,145.80 4.98,146.36 5.98,146.69 7.20,146.80 7.20,153.20 4.98,153.64 4.20,154.20 3.64,154.98 3.31,155.98 3.20,157.20 -3.20,157.20">
        <request index="0" response="000000000" foes="100010000" cont="0"/>
        <request index="1" response="011000000" foes="011110000" cont="1"/>
        <request index="2" response="010001000" foes="010001000" cont="1"/>
        <request index="3" response="010000000" foes="010000100" cont="0"/>
        <request index="4" response="010000011" foes="110000011" cont="0"/>
        <request index="5" response="001000010" foes="001000010" cont="0"/>
        <request index="6" response="000000000" foes="000100010" cont="0"/>
        <request index="7" response="000000000" foes="000011110" cont="0"/>
        <request index="8" response="000010001" foes="000010001" cont="1"/>
    </junction>
    <junction id="A2" type="priority" x="0.00" y="300.00" incLanes="A1A2_0 B2A2_0" intLanes=":A2_0_0 :A2_1_0" shape="-3.20,296.80 3.20,296.80 3.20,303.20 -0.36,302.49 -1.60,301.60 -2.49,300.36 -3.02,298.76">
        <request index="0" response="00" foes="00" cont="0"/>
        <request index="1" response="00" foes="00" cont="0"/>
    </junction>
    <junction id="B0" type="priority" x="150.00" y="0.00" incLanes="C0B0_0 B1B0_0 A0B0_0" intLanes=":B0_0_0 :B0_9_0 :B0_10_0 :B0_3_0 :B0_4_0 :B0_5_0 :B0_6_0 :B0_7_0 :B0_11_0" shape="157.20,-3.20 157.20,3.20 154.98,3.64 154.20,4.20 153.64,4.98 153.31,5.98 153.20,7.20 146.80,7.20 146.36,4.98 145.80,4.20 145.02,3.64 144.02,3.31 142.80,3.20 142.80,-3.20">
        <request index="0" response="000000000" foes="100010000" cont="0"/>
        <request index="1" response="011000000" foes="011110000" cont="1"/>
        <request index="2" response="010001000" foes="010001000" cont="1"/>
        <request index="3" response="010000000" foes="010000100" cont="0"/>
        <request index="4" response="010000011" foes="110000011" cont="0"/>
        <request index="5" response="001000010" foes="001000010" cont="0"/>
        <request index="6" response="000000000" foes="000100010" cont="0"/>
        <request index="7" response="000000000" foes="000011110" cont="0"/>
        <request index="8" response="000010001" foes="000010001" cont="1"/>
    </junction>
    <junction id="B1" type="traffic_light" x="150.00" y="150.00" incLanes="B0B1_0 C1B1_0 B2B1_0 A1B1_0" intLanes=":B1_0_0 :B1_1_0 :B1_16_0 :B1_17_0 :B1_4_0 :B1_5_0 :B1_18_0 :B1_19_0 :B1_8_0 :B1_9_0 :B1_20_0 :B1_21_0 :B1_12_0 :B1_13_0 :B1_22_0 :B1_23_0" shape="146.80,142.80 153.20,142.80 153.64,145.02 154.20,145.80 154.98,146.36 155.98,146.69 157.20,146.80 157.20,153.20 154.98,153.64 154.20,154.20 153.64,154.98 153.31,155.98 153.20,157.20 146.80,157.20 146.36,154.98 145.80,154.20 145.02,153.64 144.02,153.31 142.80,153.20 142.80,146.80 145.02,146.36 145.80,145.80 146.36,145.02 146.69,144.02">
        <request index="0"  response="0000000000000000" foes="1000010000100000" cont="0"/>
        <request index="1"  response="0100000001000000" foes="0111110001100000" cont="0"/>
        <request index="2"  response="0100011101000000" foes="0110011111100000" cont="1"/>
        <request index="3"  response="0100001000010000" foes="0100001000010000" cont="1"/>
        <request index="4"  response="0000001000000000" foes="0100001000001000" cont="0"/>
        <request index="5"  response="0000011000000111" foes="1100011000000111" cont="0"/>
        <request index="6"  response="0011011000000110" foes="0111111000000110" cont="1"/>
        <request index="7"  response="0010000100000100" foes="0010000100000100" cont="1"/>
        <request index="8"  response="0000000000000000" foes="0010000010000100" cont="0"/>
        <request index="9"  response="0100000001000000" foes="0110000001111100" cont="0"/>
        <request index="10" response="0100000001000011" foes="1110000001100111" cont="1"/>
        <request index="11" response="0001000001000010" foes="0001000001000010" cont="1"/>
        <request index="12" response="0000000000000010" foes="0000100001000010" cont="0"/>
        <request index="13" response="0000011100000110" foes="0000011111000110" cont="0"/>
        <request index="14" response="0000011001110110" foes="0000011001111110" cont="1"/>
        <request index="15" response="0000010000100001" foes="0000010000100001" cont="1"/>
    </junction>
    <junction id="B2" type="priority" x="150.00" y="300.00" incLanes="B1B2_0 C2B2_0 A2B2_0" intLanes=":B2_0_0 :B2_1_0 :B2_2_0 :B2_3_0 :B2_4_0 :B2_9_0 :B2_6_0 :B2_10_0 :B2_11_0" shape="146.80,292.80 153.20,292.80 153.64,295.02 154.20,295.80 154.98,296.36 155.98,296.69 157.20,296.80 157.20,303.20 142.80,303.20 142.80,296.80 145.02,296.36 145.80,295.80 146.36,295.02 146.69,294.02">
        <request index="0" response="000010000" foes="100010000" cont="0"/>
        <request index="1" response="011010000" foes="011110000" cont="0"/>
        <request index="2" response="010001000" foes="010001000" cont="0"/>
        <request index="3" response="000000000" foes="010000100" cont="0"/>
        <request index="4" response="000000000" foes="110000011" cont="0"/>
        <request index="5" response="001000010" foes="001000010" cont="1"/>
        <request index="6" response="000000000" foes="000100010" cont="0"/>
        <request index="7" response="000011000" foes="000011110" cont="1"/>
        <request index="8" response="000010001" foes="000010001" cont="1"/>
    </junction>
    <junction id="C0" type="priority" x="300.00" y="0.00" incLanes="C1C0_0 B0C0_0" intLanes=":C0_0_0 :C0_1_0" shape="303.20,3.20 296.80,3.20 296.80,-3.20 300.36,-2.49 301.60,-1.60 302.49,-0.36 303.02,1.24">
        <request index="0" response="00" foes="00" cont="0"/>
        <request index="1" response="00" foes="00" cont="0"/>
    </junction>
    <junction id="C1" type="priority" x="300.00" y="150.00" incLanes="C0C1_0 C2C1_0 B1C1_0" intLanes=":C1_0_0 :C1_1_0 :C1_9_0 :C1_3_0 :C1_10_0 :C1_11_0 :C1_6_0 :C1_7_0 :C1_8_0" shape="296.80,142.80 303.20,142.80 303.20,157.20 296.80,157.20 296.36,154.98 295.80,154.20 295.02,153.64 294.02,153.31 292.80,153.20 292.80,146.80 295.02,146.36 295.80,145.80 296.36,145.02 296.69,144.02">
        <request index="0" response="000000000" foes="100010000" cont="0"/>
        <request index="1" response="000000000" foes="011110000" cont="0"/>
        <request index="2" response="010001000" foes="010001000" cont="1"/>
        <request index="3" response="000000000" foes="010000100" cont="0"/>
        <request index="4" response="000000011" foes="110000011" cont="1"/>
        <request index="5" response="001000010" foes="001000010" cont="1"/>
        <request index="6" response="000000010" foes="000100010" cont="0"/>
        <request index="7" response="000011010" foes="000011110" cont="0"/>
        <request index="8" response="000010001" foes="000010001" cont="0"/>
    </junction>
    <junction id="C2" type="priority" x="300.00" y="300.00" incLanes="C1C2_0 B2C2_0" intLanes=":C2_0_0 :C2_1_0" shape="296.80,296.80 303.20,296.80 302.49,300.36 301.60,301.60 300.36,302.49 298.76,303.02 296.80,303.20">
        <request index="0" response="00" foes="00" cont="0"/>
        <request index="1" response="00" foes="00" cont="0"/>
    </junction>

    <junction id=":A1_9_0" type="internal" x="-0.96" y="146.80" incLanes=":A1_1_0 A2A1_0" intLanes=":A1_4_0 :A1_5_0 :A1_6_0 :A1_7_0"/>
    <junction id=":A1_10_0" type="internal" x="-0.80" y="144.00" incLanes=":A1_2_0 A2A1_0 B1A1_0" intLanes=":A1_3_0 :A1_7_0"/>
    <junction id=":A1_11_0" type="internal" x="0.80" y="156.00" incLanes=":A1_8_0 A0A1_0 B1A1_0" intLanes=":A1_0_0 :A1_4_0"/>
    <junction id=":B0_9_0" type="internal" x="153.20" y="-0.96" incLanes=":B0_1_0 A0B0_0" intLanes=":B0_4_0 :B0_5_0 :B0_6_0 :B0_7_0"/>
    <junction id=":B0_10_0" type="internal" x="156.00" y="-0.80" incLanes=":B0_2_0 A0B0_0 B1B0_0" intLanes=":B0_3_0 :B0_7_0"/>
    <junction id=":B0_11_0" type="internal" x="144.00" y="0.80" incLanes=":B0_8_0 B1B0_0 C0B0_0" intLanes=":B0_0_0 :B0_4_0"/>
    <junction id=":B1_16_0" type="internal" x="149.04" y="146.80" incLanes=":B1_2_0 B2B1_0" intLanes=":B1_5_0 :B1_6_0 :B1_7_0 :B1_8_0 :B1_9_0 :B1_13_0 :B1_14_0"/>
    <junction id=":B1_17_0" type="internal" x="149.20" y="144.00" incLanes=":B1_3_0 A1B1_0 B2B1_0 C1B1_0" intLanes=":B1_4_0 :B1_9_0 :B1_14_0"/>
    <junction id=":B1_18_0" type="internal" x="153.20" y="149.04" incLanes=":B1_6_0 A1B1_0" intLanes=":B1_1_0 :B1_2_0 :B1_9_0 :B1_10_0 :B1_11_0 :B1_12_0 :B1_13_0"/>
    <junction id=":B1_19_0" type="internal" x="156.00" y="149.20" incLanes=":B1_7_0 A1B1_0 B0B1_0 B2B1_0" intLanes=":B1_2_0 :B1_8_0 :B1_13_0"/>
    <junction id=":B1_20_0" type="internal" x="150.96" y="153.20" incLanes=":B1_10_0 B0B1_0" intLanes=":B1_0_0 :B1_1_0 :B1_5_0 :B1_6_0 :B1_13_0 :B1_14_0 :B1_15_0"/>
    <junction id=":B1_21_0" type="internal" x="150.80" y="156.00" incLanes=":B1_11_0 A1B1_0 B0B1_0 C1B1_0" intLanes=":B1_1_0 :B1_6_0 :B1_12_0"/>
    <junction id=":B1_22_0" type="internal" x="146.80" y="150.96" incLanes=":B1_14_0 C1B1_0" intLanes=":B1_1_0 :B1_2_0 :B1_3_0 :B1_4_0 :B1_5_0 :B1_9_0 :B1_10_0"/>