<?xml version="1.0" encoding="UTF-8"?>

<!-- generated on 2022-12-05 12:05:05 by Eclipse SUMO netedit Version 1.14.1
-->

<additional xmlns:xsi="http://www.w3.org/2001/XMLSchema-instance" xsi:noNamespaceSchemaLocation="http://sumo.dlr.de/xsd/additional_file.xsd">
    <!-- Detectors -->
    <e1Detector id="e1_0" lane="A1B1_0" pos="100.00" period="300.00" file="e1_0.xml"/>
    <e1Detector id="e1_1" lane="B2B1_0" pos="100.00" period="300.00" file="e1_1.xml"/>
    <e1Detector id="e1_2" lane="C1B1_0" pos="100.00" period="300.00" file="e1_2.xml"/>
    <e1Detector id="e1_3" lane="B0B1_0" pos="100.00" period="300.00" file="e1_3.xml"/>
</additional>
